Canindé/OpenDSS/Rede_CAI_teste_sem_trafos_1115_elem_kVA.txt

  Bus   (node ref)  Node       V (kV)    Angle    p.u.   Base kV

1115 1       7.9685 /_  -30.0    1.0001    13.800        1-2     13.802 /_    0.0    1.0001
   - 2       7.9685 /_ -150.0    1.0001    13.800        2-3     13.802 /_ -120.0    1.0001
   - 3       7.9685 /_   90.0    1.0001    13.800        3-1     13.802 /_  120.0    1.0001

CIRCUIT ELEMENT CURRENTS

(Currents into element from indicated bus)

Power Delivery Elements

  Bus         Phase    Magnitude, A     Angle      (Real)   +j  (Imag)

ELEMENT = "Line.12460834_ID3390"
1111     1          0.52646 /_   60.0 =    0.26325 +j   0.45592
1111     2          0.53383 /_  -60.0 =    0.26689 +j  -0.46232
1111     3          0.52981 /_  180.0 =   -0.52981 +j 2.1847E-005
1111 Resid        0.0063861 /_   93.0 =   -0.00033427 +j 0.0063774
------------
1115     1          0.52646 /_ -120.0 =   -0.26325 +j  -0.45592
1115     2          0.53383 /_  120.0 =   -0.26689 +j   0.46232
1115     3          0.52981 /_    0.0 =    0.52981 +j -2.1847E-005
1115 Resid        0.0063861 /_  -87.0 =   0.00033427 +j -0.0063774


ELEMENT = "Line.12460804_ID3392"
1182     1          0.52579 /_ -120.0 =   -0.26291 +j  -0.45534
1182     2          0.53316 /_  120.0 =   -0.26656 +j   0.46174
1182     3          0.52914 /_    0.0 =    0.52914 +j -2.1829E-005
1182 Resid        0.0063861 /_  -87.0 =   0.00033427 +j -0.0063774
------------
1115     1          0.52579 /_   60.0 =    0.26291 +j   0.45534
1115     2          0.53316 /_  -60.0 =    0.26656 +j  -0.46174
1115     3          0.52914 /_  180.0 =   -0.52914 +j 2.1828E-005
1115 Resid        0.0063861 /_   93.0 =   -0.00033427 +j 0.0063774


= = = = = = = = = = = = = = = = = = =  = = = = = = = = = = =  = =

Power Conversion Elements

  Bus         Phase    Magnitude, A     Angle      (Real)   +j  (Imag)


CIRCUIT ELEMENT POWER FLOW

(Power Flow into element from indicated Bus)

  Bus       Phase     kW     +j   kvar           kVA           PF

ELEMENT = "Line.12460834_ID3390"          
1115            1 -5.3396E-005 +j     4.1951        4.1951      0.0000
1115            2 -5.4322E-005 +j     4.2538        4.2538      0.0000
1115            3 -5.3267E-005 +j     4.2218        4.2218      0.0000
 TERMINAL TOTAL   -0.00016098 +j     12.671        12.671      0.0000
ELEMENT = "Line.12460834_ID3390"          
1111            1 5.4844E-005 +j    -4.1951        4.1951      0.0000
1111            2 5.581E-005 +j    -4.2538        4.2538      0.0000
1111            3 5.4731E-005 +j    -4.2218        4.2218      0.0000
 TERMINAL TOTAL   0.00016539 +j    -12.671        12.671      0.0000

ELEMENT = "Line.12460804_ID3392"          
1115            1 5.3402E-005 +j    -4.1898        4.1898      0.0000
1115            2 5.4313E-005 +j    -4.2485        4.2485      0.0000
1115            3 5.3268E-005 +j    -4.2165        4.2165      0.0000
 TERMINAL TOTAL   0.00016098 +j    -12.655        12.655      0.0000
ELEMENT = "Line.12460804_ID3392"          
1182            1 -5.3308E-005 +j     4.1898        4.1898      0.0000
1182            2 -5.4241E-005 +j     4.2485        4.2485      0.0000
1182            3 -5.3186E-005 +j     4.2165        4.2165      0.0000
 TERMINAL TOTAL   -0.00016074 +j     12.655        12.655      0.0000

= = = = = = = = = = = = = = = = = = =  = = = = = = = = = = =  = =

Power Conversion Elements

  Bus         Phase     kW   +j  kvar         kVA         PF

